-------------------------------------------------------
          Amber 16 PMEMD                              2016
          -------------------------------------------------------

  [-O]verwriting output

File Assignments:

 Here is the input file:

Stage 2 equilibration  10ns
 &cntrl
  imin=0, irest=1, ntx=5,
  nstlim=5000000, dt=0.002,
  ntc=2, ntf=2,
  ig=-1,
  ntt = 3, gamma_ln=0.1,
  tempi=317.0, temp0=317.0,
  ntpr=1000, ntwx=1000,
  ntb=0, igb=8, saltcon=0.145,
  cut=999.,rgbmax=999.
 /

Note: ig = -1. Setting random seed to   103250 based on wallclock time in
      microseconds.

--------------------------------------------------------------------------------
   1.  RESOURCE   USE:
--------------------------------------------------------------------------------

 NATOM  =     304 NTYPES =      12 NBONH =     150 MBONA  =     160
 NTHETH =     346 MTHETA =     219 NPHIH =     657 MPHIA  =     552
 NHPARM =       0 NPARM  =       0 NNB   =    1701 NRES   =      20
 NBONA  =     160 NTHETA =     219 NPHIA =     552 NUMBND =      38
 NUMANG =      87 NPTRA  =      37 NATYP =      22 NPHB   =       0
 IFBOX  =       0 NMXRS  =      24 IFCAP =       0 NEXTRA =       0
 NCOPY  =       0

 Implicit solvent radii are ArgH and AspGluO modified Bondi2 radii (mbondi3)
 Replacing prmtop screening parameters with GBn2 (igb=8) values
--------------------------------------------------------------------------------
   2.  CONTROL  DATA  FOR  THE  RUN
--------------------------------------------------------------------------------

General flags:
     imin    =       0, nmropt  =       0

Nature and format of input:
     ntx     =       5, irest   =       1, ntrx    =       1

Nature and format of output:
     ntxo    =       2, ntpr    =    1000, ntrx    =       1, ntwr    = 5000000
     iwrap   =       0, ntwx    =    1000, ntwv    =       0, ntwe    =       0
     ioutfm  =       1, ntwprt  =       0, idecomp =       0, rbornstat=      0

Potential function:
     ntf     =       2, ntb     =       0, igb     =       8, nsnb    =      25
     ipol    =       0, gbsa    =       0, iesp    =       0
     dielc   =   1.00000, cut     = 999.00000, intdiel =   1.00000
     saltcon =   0.14500, offset  =   0.19514, surften =   0.00500
     rdt     =   0.00000, rgbmax  = 999.00000  extdiel =  78.50000
     alpb  =        0
     gbalphaH  =   0.78844, gbbetaH   =   0.79870,  gbgammaH  =    0.43733
     gbalphaC  =   0.73376, gbbetaC   =   0.50638,  gbgammaC  =    0.20584
     gbalphaN  =   0.50336, gbbetaN   =   0.31683,  gbgammaN  =    0.19292
     gbalphaOS =   0.86781, gbbetaOS  =   0.87664,  gbgammaOS =    0.38788
     gbalphaP  =   1.00000, gbbetaP   =   0.80000,  gbgammaP  =    4.85000
     gb_alpha_hnu  =   0.53705, gb_beta_hnu   =   0.36286,  gb_gamma_hnu  =    0.11670
     gb_alpha_cnu  =   0.33167, gb_beta_cnu   =   0.19684,  gb_gamma_cnu  =    0.09342
     gb_alpha_nnu  =   0.68631, gb_beta_nnu   =   0.46319,  gb_gamma_nnu  =    0.13872
     gb_alpha_onu  =   0.60634, gb_beta_onu   =   0.46301,  gb_gamma_onu  =    0.14226
     gb_alpha_pnu  =   0.41836, gb_beta_pnu   =   0.29005,  gb_gamma_pnu  =    0.10642

Frozen or restrained atoms:
     ibelly  =       0, ntr     =       0

Molecular dynamics:
     nstlim  =   5000000, nscm    =      1000, nrespa  =         1
     t       =   0.00000, dt      =   0.00200, vlimit  =  -1.00000

Langevin dynamics temperature regulation:
     ig      =  103250
     temp0   = 317.00000, tempi   = 317.00000, gamma_ln=   0.10000

SHAKE:
     ntc     =       2, jfastw  =       0
     tol     =   0.00001

--------------------------------------------------------------------------------
   3.  ATOMIC COORDINATES AND VELOCITIES
--------------------------------------------------------------------------------

 begin time read from input coords =  9000.000 ps

 Number of triangulated 3-point waters found:        0

--------------------------------------------------------------------------------
   4.  RESULTS
 NSTEP =     1000   TIME(PS) =    9002.000  TEMP(K) =   313.75  PRESS =     0.0
 Etot   =      -185.7704  EKtot   =       237.5462  EPtot      =      -423.3166
 BOND   =        59.0653  ANGLE   =       179.1709  DIHED      =       222.8648
 1-4 NB =        60.5072  1-4 EEL =       886.2389  VDWAALS    =       -88.1669
 EELEC  =     -1284.8667  EGB     =      -458.1300  RESTRAINT  =         0.0000
 ------------------------------------------------------------------------------

      A V E R A G E S   O V E R    5000 S T E P S

 NSTEP =  5000000   TIME(PS) =   19000.000  TEMP(K) =   317.42  PRESS =     0.0
 Etot   =      -204.5478  EKtot   =       240.3231  EPtot      =      -444.8709
 BOND   =        65.4280  ANGLE   =       167.5039  DIHED      =       217.3108
 1-4 NB =        64.4300  1-4 EEL =       881.9286  VDWAALS    =       -91.7442
 EELEC  =     -1322.3488  EGB     =      -427.3791  RESTRAINT  =         0.0000
 ------------------------------------------------------------------------------

      R M S  F L U C T U A T I O N S

 NSTEP =  5000000   TIME(PS) =   19000.000  TEMP(K) =    16.67  PRESS =     0.0
 Etot   =        20.4663  EKtot   =        12.6180  EPtot      =        15.5809
 BOND   =         7.1046  ANGLE   =        10.4442  DIHED      =         6.7054
 1-4 NB =         3.6238  1-4 EEL =        12.4512  VDWAALS    =         9.1126
 EELEC  =        38.4560  EGB     =        36.0441  RESTRAINT  =         0.0000
 ------------------------------------------------------------------------------
